@<TRIPOS>MOLECULE
*****
   43    44     0     0     0
SMALL
USER_CHARGES

@<TRIPOS>ATOM
      1 H1          7.1030    8.0890    7.6940 H         1 lig298      0.1128
      2 H2         10.2980   12.3950    9.0860 H         1 lig298      0.0896
      3 H3          8.1750    6.8900    9.5710 H         1 lig298      0.0952
      4 H4          9.1380   13.6440    7.2970 H         1 lig298      0.1242
      5 H5         10.5260   10.4000   10.4550 H         1 lig298      0.1137
      6 H6          6.7550   10.1420    6.4090 H         1 lig298      0.1273
      7 H7          8.1080    4.4590   12.3310 H         1 lig298      0.0279
      8 H8          8.6240    4.5340   14.0150 H         1 lig298      0.0279
      9 H9         10.9300    3.7610   13.3130 H         1 lig298      0.0614
     10 H10        10.4400    3.8020   11.6280 H         1 lig298      0.0614
     11 H11        10.3280    6.2220   13.5120 H         1 lig298      0.0565
     12 H12        13.7750    6.8300   13.4850 H         1 lig298      0.3003
     13 H13        12.1580    7.3260   14.0110 H         1 lig298      0.3003
     14 H14         9.6400    6.0090   10.6600 H         1 lig298      0.3194
     15 C1          7.8610    8.5940    8.2860 C.ar      1 lig298     -0.2041
     16 C2          9.5250   11.9030    8.5030 C.ar      1 lig298     -0.0896
     17 C3          8.4790    7.9090    9.3510 C.ar      1 lig298     -0.0695
     18 C4          8.8670   12.6090    7.4830 C.ar      1 lig298     -0.1672
     19 C5          9.7860    9.8860    9.8480 C.ar      1 lig298      0.0054
     20 C6          7.5300   10.6420    6.9830 C.ar      1 lig298     -0.2863
     21 C7          9.1750   10.5730    8.7820 C.ar      1 lig298     -0.1856
     22 C8          8.1940    9.9310    8.0050 C.ar      1 lig298      0.0706
     23 C9          9.4410    8.5540   10.1540 C.ar      1 lig298     -0.2996
     24 C10         7.8420   12.0010    6.7230 C.ar      1 lig298      0.0639
     25 C11        10.0740    7.8940   11.3620 C.2       1 lig298      0.7038
     26 C12        12.2160    5.8770   12.5520 C.2       1 lig298      0.6411
     27 C13         8.4400    2.5310   13.2520 C.2       1 lig298      0.9078
     28 C14         8.7990    4.0210   13.0620 C.3       1 lig298     -0.1948
     29 C15        10.2620    4.2670   12.6060 C.3       1 lig298     -0.0652
     30 C16        10.6620    5.7660   12.5720 C.3       1 lig298      0.0605
     31 C17         7.0490   12.8470    5.6970 C.3       1 lig298      0.4487
     32 N1         12.7670    6.7300   13.4630 N.am      1 lig298     -0.6705
     33 N2         10.0410    6.5170   11.4400 N.am      1 lig298     -0.5711
     34 O1          7.2570    2.2400   13.3460 O.co2     1 lig298     -0.8619
     35 O2          8.0960   11.9060    3.2080 O.3       1 lig298     -0.8180
     36 O3          7.1880   14.1040    3.2210 O.2       1 lig298     -0.8180
     37 O4         10.5660    8.5610   12.2640 O.2       1 lig298     -0.7182
     38 O5         12.9370    5.2050   11.8340 O.2       1 lig298     -0.6437
     39 O6          9.3350    1.7000   13.3230 O.co2     1 lig298     -0.8619
     40 O7          9.2720   13.7380    4.2550 O.3       1 lig298     -0.8180
     41 F1          6.7810   14.0790    6.2070 F         1 lig298     -0.2038
     42 F2          5.8370   12.3080    5.4250 F         1 lig298     -0.2038
     43 P1          7.9370   13.1250    4.0410 P.3       1 lig298      1.0310
@<TRIPOS>BOND
     1   36   43 2
     2   35   43 1
     3   40   43 1
     4   31   43 1
     5   31   42 1
     6   31   41 1
     7   24   31 1
     8    6   20 1
     9   20   24 ar
    10   18   24 ar
    11   20   22 ar
    12    1   15 1
    13    4   18 1
    14   16   18 ar
    15   15   22 ar
    16   21   22 ar
    17   15   17 ar
    18   16   21 ar
    19    2   16 1
    20   19   21 ar
    21    3   17 1
    22   17   23 ar
    23   19   23 ar
    24    5   19 1
    25   23   25 1
    26   14   33 1
    27   25   33 am
    28   25   37 2
    29   30   33 1
    30   26   38 2
    31   10   29 1
    32    7   28 1
    33   26   30 1
    34   29   30 1
    35   11   30 1
    36   26   32 am
    37   28   29 1
    38    9   29 1
    39   27   28 1
    40    8   28 1
    41   27   39 2
    42   27   34 1
    43   12   32 1
    44   13   32 1

